Project: test project
version: v0.1.0
third line.
new line.
another line.
