Project: test project
version: v0.1.0
new line.
